OpenDSS/IEEETestCases/13Bus/IEEE13Nodeckt/DI_yr_0/sub/Transformers.dss
New "Transformer.sub" phases=3 windings=2 XHL=0.008 buses=[sourcebus, 650, ] conns=[delta, wye, ] kVs=[115, 4.16, ] kVAs=[5000, 5000, ] taps=[1, 1, ] wdg=1 %R=0.0005 RdcOhms=0.01124125 wdg=2 %R=0.0005 RdcOhms=4.903253E-006
New "Transformer.reg3" phases=1 bank=reg1 XHL=0.01 kVAs=[1666, 1666, ] buses=[650.3, rg60.3, ] kVs=[2.4, 2.4, ] %loadloss=0.01
New "RegControl.reg3" transformer=Reg3 winding=2 tapwinding=2 vreg=122 band=2 ptratio=20 CTprim=700 R=3 X=9
New "Transformer.xfm1" phases=3 windings=2 XHL=2 buses=[633, 634, ] conns=[wye, wye, ] kVs=[4.16, 0.48, ] kVAs=[500, 500, ] taps=[1, 1, ] wdg=1 %R=0.55 RdcOhms=0.05393579 wdg=2 %R=0.55 RdcOhms=0.00071808
New "Transformer.reg2" phases=1 bank=reg1 XHL=0.01 kVAs=[1666, 1666, ] buses=[650.2, rg60.2, ] kVs=[2.4, 2.4, ] %loadloss=0.01
New "RegControl.reg2" transformer=Reg2 winding=2 tapwinding=2 vreg=122 band=2 ptratio=20 CTprim=700 R=3 X=9
New "Transformer.reg1" phases=1 bank=reg1 XHL=0.01 kVAs=[1666, 1666, ] buses=[650.1, rg60.1, ] kVs=[2.4, 2.4, ] %loadloss=0.01
New "RegControl.reg1" transformer=Reg1 winding=2 tapwinding=2 vreg=122 band=2 ptratio=20 CTprim=700 R=3 X=9
