OpenDSS/IEEETestCases/13Bus/IEEE13Nodeckt_Curr_Elem.Txt

CIRCUIT ELEMENT CURRENTS

(Currents into element from indicated bus)

Power Delivery Elements

  Bus     Phase    Magnitude, A     Angle      (Real)   +j  (Imag)

ELEMENT = "Vsource.SOURCE"
SOURCEBUS     1           12.431 /_ -167.7 =    -12.147 +j   -2.6428
SOURCEBUS     2           14.754 /_   73.2 =     4.2612 +j    14.125
SOURCEBUS     3           13.929 /_  -55.5 =     7.8858 +j   -11.482
------------
SOURCEBUS     0           12.431 /_   12.3 =     12.147 +j    2.6428
SOURCEBUS     0           14.754 /_ -106.8 =    -4.2612 +j   -14.125
SOURCEBUS     0           13.929 /_  124.5 =    -7.8858 +j    11.482

ELEMENT = "Transformer.SUB"
SOURCEBUS     1           12.431 /_   12.3 =     12.147 +j    2.6428
SOURCEBUS     2           14.754 /_ -106.8 =    -4.2612 +j   -14.125
SOURCEBUS     3           13.929 /_  124.5 =    -7.8858 +j    11.482
SOURCEBUS     0                0 /_    0.0 =          0 +j         0
------------
650           1           360.16 /_  154.6 =    -325.33 +j    154.52
650           2           380.36 /_   47.6 =     256.28 +j    281.06
650           3           398.69 /_  -82.5 =     52.252 +j   -395.25
650           0            43.68 /_  -67.4 =     16.796 +j   -40.322

ELEMENT = "Transformer.REG1"
650           1           360.16 /_  -25.4 =     325.33 +j   -154.52
650           0           360.16 /_  154.6 =    -325.33 +j    154.52
------------
RG60          1           349.24 /_  154.6 =    -315.47 +j    149.83
RG60          0           349.24 /_  -25.4 =     315.47 +j   -149.83

ELEMENT = "Transformer.REG2"
650           2           380.36 /_ -132.4 =    -256.28 +j   -281.06
650           0           380.36 /_   47.6 =     256.28 +j    281.06
------------
RG60          2           371.08 /_   47.6 =     250.03 +j     274.2
RG60          0           371.08 /_ -132.4 =    -250.03 +j    -274.2

ELEMENT = "Transformer.REG3"
650           3           398.69 /_   97.5 =    -52.252 +j    395.25
650           0           398.69 /_  -82.5 =     52.252 +j   -395.25
------------
RG60          3           386.61 /_  -82.5 =     50.669 +j   -383.27
RG60          0           386.61 /_   97.5 =    -50.669 +j    383.27

ELEMENT = "Transformer.XFM1"
633           1           83.016 /_  -36.6 =     66.688 +j   -49.442
633           2            62.85 /_ -159.5 =    -58.885 +j   -21.969
633           3            63.44 /_   81.0 =     9.8886 +j    62.664
633           0           19.736 /_  153.7 =    -17.692 +j    8.7467
------------
634           1           719.48 /_  143.4 =    -577.96 +j    428.49
634           2            544.7 /_   20.5 =     510.33 +j     190.4
634           3           549.81 /_  -99.0 =      -85.7 +j   -543.09
634           0           171.04 /_  -26.3 =     153.33 +j   -75.805

ELEMENT = "Capacitor.CAP1"
675           1           81.561 /_   87.1 =     4.1214 +j    81.457
675           2           84.985 /_  -33.1 =     71.205 +j   -46.393
675           3           82.239 /_ -152.7 =    -73.106 +j   -37.666
------------
675           0           81.561 /_  -92.9 =    -4.1214 +j   -81.457
675           0           84.985 /_  146.9 =    -71.205 +j    46.393
675           0           82.239 /_   27.3 =     73.106 +j    37.666

ELEMENT = "Capacitor.CAP2"
611           3                0 /_    0.0 =          0 +j         0
------------
611           0                0 /_    0.0 =          0 +j         0

ELEMENT = "Capacitor.CAP645"
645           2               21 /_  -32.5 =     17.718 +j   -11.273
645           2               21 /_  -32.5 =     17.718 +j   -11.273
645           3           20.963 /_ -151.6 =    -18.439 +j   -9.9728
------------
645           0               21 /_  147.5 =    -17.718 +j    11.273
645           0               21 /_  147.5 =    -17.718 +j    11.273
645           0           20.963 /_   28.4 =     18.439 +j    9.9728

ELEMENT = "Capacitor.CAP692"
692           3           6.8711 /_ -152.7 =    -6.1065 +j     -3.15
692           1           6.8203 /_   87.3 =    0.32087 +j    6.8128
692           3           6.8711 /_ -152.7 =    -6.1065 +j     -3.15
------------
692           0           6.8711 /_   27.3 =     6.1065 +j      3.15
692           0           6.8203 /_  -92.7 =   -0.32087 +j   -6.8128
692           0           6.8711 /_   27.3 =     6.1065 +j      3.15

ELEMENT = "Line.650632"
RG60          1           349.24 /_  -25.4 =     315.47 +j   -149.83
RG60          2           371.08 /_ -132.4 =    -250.03 +j    -274.2
RG60          3           386.61 /_   97.5 =    -50.669 +j    383.27
------------
632           1           349.24 /_  154.6 =    -315.47 +j    149.83
632           2           371.08 /_   47.6 =     250.03 +j     274.2
632           3           386.61 /_  -82.5 =     50.668 +j   -383.28

ELEMENT = "Line.632670"
632           1           268.28 /_  -22.0 =     248.78 +j   -100.39
632           2           182.21 /_ -127.8 =    -111.57 +j   -144.06
632           3           286.72 /_  105.3 =    -75.816 +j    276.51
------------
670           1           268.28 /_  158.0 =    -248.78 +j    100.39
670           2           182.21 /_   52.2 =     111.57 +j    144.06
670           3           286.72 /_  -74.7 =     75.815 +j   -276.51

ELEMENT = "Line.670671"
670           1           260.16 /_  -21.7 =      241.8 +j   -95.998
670           2           154.36 /_ -122.9 =    -83.893 +j   -129.57
670           3           233.59 /_  109.5 =    -77.997 +j    220.19
------------
671           1           260.16 /_  158.3 =     -241.8 +j    95.999
671           2           154.36 /_   57.1 =     83.894 +j    129.57
671           3           233.59 /_  -70.5 =     77.996 +j   -220.19

ELEMENT = "Line.671680"
671           1       0.00057569 /_   87.5 =  2.4818E-005 +j 0.00057516
671           2       0.00059064 /_  -32.9 =  0.00049612 +j -0.0003205
671           3       0.00057798 /_ -153.1 =  -0.00051522 +j -0.00026194
------------
680           1      2.0337E-012 /_   26.6 =  1.819E-012 +j 9.0949E-013
680           2      3.7499E-012 /_ -104.0 =  -9.0949E-013 +j -3.638E-012
680           3       1.819E-012 /_   90.0 =          0 +j 1.819E-012

ELEMENT = "Line.632633"
632           1           83.016 /_  -36.6 =     66.688 +j   -49.441
632           2           62.849 /_ -159.5 =    -58.885 +j    -21.97
632           3            63.44 /_   81.0 =     9.8883 +j    62.664
------------
633           1           83.016 /_  143.4 =    -66.688 +j    49.442
633           2            62.85 /_   20.5 =     58.885 +j    21.969
633           3            63.44 /_  -99.0 =    -9.8886 +j   -62.664

ELEMENT = "Line.632645"
632           3           46.663 /_   70.9 =     15.259 +j    44.098
632           2           134.29 /_ -126.3 =     -79.58 +j   -108.17
------------
645           3           46.663 /_ -109.1 =    -15.259 +j   -44.098
645           2           134.29 /_   53.7 =     79.581 +j    108.17

ELEMENT = "Line.645646"
645           3           63.712 /_   58.1 =     33.698 +j    54.071
645           2           63.712 /_ -121.9 =    -33.698 +j   -54.071
------------
646           3           63.712 /_ -121.9 =    -33.699 +j   -54.071
646           2           63.712 /_   58.1 =     33.699 +j    54.071

ELEMENT = "Line.692675"
692           1           123.31 /_    7.8 =     122.16 +j    16.776
692           2           66.593 /_  -57.7 =     35.579 +j   -56.292
692           3           122.49 /_  113.9 =    -49.676 +j    111.96
------------
675           1            123.3 /_ -172.2 =    -122.16 +j   -16.744
675           2           66.563 /_  122.3 =    -35.551 +j    56.274
675           3           122.49 /_  -66.1 =     49.647 +j   -111.98

ELEMENT = "Line.671684"
671           1           62.638 /_  -36.5 =     50.368 +j   -37.236
671           2           78.286 /_ -148.3 =    -66.627 +j   -41.103
------------
684           1           62.638 /_  143.5 =    -50.368 +j    37.236
684           2           78.286 /_   31.7 =     66.627 +j    41.103

ELEMENT = "Line.684611"
684           2           78.286 /_ -148.3 =    -66.627 +j   -41.103
------------
611           2           78.286 /_   31.7 =     66.627 +j    41.103

ELEMENT = "Line.684652"
684           1           62.638 /_  -36.5 =     50.368 +j   -37.236
------------
652           1           62.655 /_  143.5 =    -50.367 +j    37.267

ELEMENT = "Line.671692"
671           1           140.19 /_  -12.0 =     137.15 +j    -29.07
671           2           66.593 /_  -57.7 =     35.579 +j   -56.292
671           3           175.86 /_  115.8 =    -76.552 +j    158.32
------------
692           1           140.19 /_  168.0 =    -137.15 +j     29.07
692           2           66.593 /_  122.3 =    -35.579 +j    56.292
692           3           175.86 /_  -64.2 =     76.552 +j   -158.32

= = = = = = = = = = = = = = = = = = =  = = = = = = = = = = =  = =

Power Conversion Elements

  Bus     Phase    Magnitude, A     Angle      (Real)   +j  (Imag)

ELEMENT = "Load.671"
671           1           61.877 /_  -28.7 =     54.287 +j   -29.693
671           2           61.867 /_ -148.7 =    -52.846 +j   -32.168
671           3           61.878 /_   91.3 =    -1.4406 +j    61.861

ELEMENT = "Load.634A"
634           1           719.44 /_  -36.6 =     577.92 +j   -428.49
634           0           719.44 /_  143.4 =    -577.92 +j    428.49

ELEMENT = "Load.634B"
634           2           544.68 /_ -159.5 =    -510.32 +j   -190.39
634           0           544.68 /_   20.5 =     510.32 +j    190.39

ELEMENT = "Load.634C"
634           3           549.77 /_   81.0 =     85.715 +j    543.05
634           0           549.77 /_  -99.0 =    -85.715 +j   -543.05

ELEMENT = "Load.645"
645           2           87.224 /_ -158.8 =    -81.317 +j   -31.553
645           0           87.224 /_   21.2 =     81.317 +j    31.553

ELEMENT = "Load.646"
646           2           63.711 /_ -121.9 =    -33.699 +j   -54.068
646           3           63.711 /_   58.1 =     33.699 +j    54.068

ELEMENT = "Load.692"
692           3           54.658 /_  105.6 =     -14.66 +j    52.656
692           1           54.658 /_  -74.4 =      14.66 +j   -52.656

ELEMENT = "Load.675A"
675           1           134.61 /_  -28.7 =     118.03 +j   -64.717
675           0           134.61 /_  151.3 =    -118.03 +j    64.717

ELEMENT = "Load.675B"
675           2           36.997 /_ -164.5 =    -35.654 +j   -9.8809
675           0           36.997 /_   15.5 =     35.654 +j    9.8809

ELEMENT = "Load.675C"
675           3           151.46 /_   81.1 =     23.464 +j    149.63
675           0           151.46 /_  -98.9 =    -23.464 +j   -149.63

ELEMENT = "Load.611"
611           2           78.285 /_ -148.3 =    -66.627 +j   -41.102
611           0           78.285 /_   31.7 =     66.627 +j    41.102

ELEMENT = "Load.652"
652           1           62.654 /_  -36.5 =     50.364 +j   -37.268
652           0           62.654 /_  143.5 =    -50.364 +j    37.268

ELEMENT = "Load.670A"
670           1           8.2478 /_  -32.2 =     6.9787 +j   -4.3959
670           0           8.2478 /_  147.8 =    -6.9787 +j    4.3959

ELEMENT = "Load.670B"
670           2           31.239 /_ -152.4 =    -27.672 +j   -14.495
670           0           31.239 /_   27.6 =     27.672 +j    14.495

ELEMENT = "Load.670C"
670           3           56.366 /_   87.8 =     2.1835 +j    56.323
670           0           56.366 /_  -92.2 =    -2.1835 +j   -56.323

