OpenDSS/IEEETestCases/13Bus/IEEE13Nodeckt_Curr_Seq.Txt

SYMMETRICAL COMPONENT CURRENTS BY CIRCUIT ELEMENT (first 3 phases)

Element            Term      I1         I2         %I2/I1    I0         %I0/I1   %Normal %Emergency

"VSOURCE.SOURCE" .   1      17.181       2.9116    16.95  2.1589E-011     0.00      0.00     0.00
   -                 2      17.181       2.9116    16.95  2.1589E-011     0.00      0.00     0.00
"TRANSFORMER.SUB"    1      17.181       2.9116    16.95  4.8512E-012     0.00     72.20    52.95
   -                 2      474.96        80.49    16.95      52.071    10.96      0.00     0.00
"TRANSFORMER.REG1"   1      591.45            0     0.00           0     0.00     77.46    56.80
   -                 2      563.29            0     0.00           0     0.00      0.00     0.00
"TRANSFORMER.REG2"   1      420.57            0     0.00           0     0.00     55.08    40.39
   -                 2      407.82            0     0.00           0     0.00      0.00     0.00
"TRANSFORMER.REG3"   1      607.32            0     0.00           0     0.00     79.54    58.33
   -                 2      581.87            0     0.00           0     0.00      0.00     0.00
"TRANSFORMER.XFM1"   1      69.574       6.4213     9.23       6.744     9.69    108.24    79.38
   -                 2      602.97       55.652     9.23      58.448     9.69      0.00     0.00
"CAPACITOR.CAP1" .   1      82.291       1.6982     2.06      3.1368     3.81      0.00     0.00
   -                 2      82.291       1.6982     2.06      3.1368     3.81      0.00     0.00
"CAPACITOR.CAP2" .   1      39.776            0     0.00           0     0.00      0.00     0.00
   -                 2      39.776            0     0.00           0     0.00      0.00     0.00
"CAPACITOR.CAP645"   1      12.129       12.129   100.00      12.291   101.33      0.00     0.00
   -                 2      12.129       12.129   100.00      12.291   101.33      0.00     0.00
"CAPACITOR.CAP692"   1      3.8985       3.8985   100.00      3.7851    97.09      0.00     0.00
   -                 2      3.8985       3.8985   100.00      3.7851    97.09      0.00     0.00
"LINE.650632" ....   1      515.83       75.532    14.64      47.654     9.24    145.47    96.98
   -                 2      515.83       75.532    14.64      47.654     9.24      0.00     0.00
"LINE.632670" ....   1      392.38       105.71    26.94      70.258    17.91    120.51    80.34
   -                 2      392.38       105.71    26.94      70.258    17.91      0.00     0.00
"LINE.670671" ....   1      360.93       107.35    29.74      70.545    19.55    118.46    78.98
   -                 2      360.93       107.35    29.74      70.545    19.55      0.00     0.00
"LINE.671680" ....   1   0.0005774   1.1129E-005     1.93  9.7084E-006     1.68      0.00     0.00
   -                 2  2.2968E-012   2.1352E-012    92.96  4.7935E-013    20.87      0.00     0.00
"LINE.632633" ....   1      69.574       6.4213     9.23       6.744     9.69     20.66    13.77
   -                 2      69.574       6.4213     9.23       6.744     9.69      0.00     0.00
"LINE.632645" ....   1      47.187            0     0.00           0     0.00     11.80     7.86
   -                 2      47.187            0     0.00           0     0.00      0.00     0.00
"LINE.645646" ....   1      64.077            0     0.00           0     0.00     16.02    10.68
   -                 2      64.077            0     0.00           0     0.00      0.00     0.00
"LINE.692675" ....   1      121.03        45.54    37.63      68.551    56.64     52.13    34.75
   -                 2      121.03        45.54    37.63       68.55    56.64      0.00     0.00
"LINE.671684" ....   1      62.204            0     0.00           0     0.00     15.55    10.37
   -                 2      62.204            0     0.00           0     0.00      0.00     0.00
"LINE.684611" ....   1      71.126            0     0.00           0     0.00     17.78    11.85
   -                 2      71.126            0     0.00           0     0.00      0.00     0.00
"LINE.684652" ....   1      62.204            0     0.00           0     0.00     15.55    10.37
   -                 2      62.222            0     0.00           0     0.00      0.00     0.00
"LINE.671692" ....   1      143.65       73.242    50.99      64.923    45.20     57.85    38.56
   -                 2      143.65       73.242    50.99      64.923    45.20      0.00     0.00
"GENERATOR.PV" ...   1      69.396   0.00041999     0.00   0.0026585     0.00      0.00     0.00
"LOAD.671" .......   1      186.43     0.069286     0.04  2.1629E-014     0.00      0.00     0.00
"LOAD.634A" ......   1      716.04            0     0.00           0     0.00      0.00     0.00
"LOAD.634B" ......   1      537.32            0     0.00           0     0.00      0.00     0.00
"LOAD.634C" ......   1      555.72            0     0.00           0     0.00      0.00     0.00
"LOAD.645" .......   1      86.083            0     0.00           0     0.00      0.00     0.00
"LOAD.646" .......   1      64.077            0     0.00           0     0.00      0.00     0.00
"LOAD.692" .......   1      54.658            0     0.00           0     0.00      0.00     0.00
"LOAD.675A" ......   1      223.94            0     0.00           0     0.00      0.00     0.00
"LOAD.675B" ......   1      36.276            0     0.00           0     0.00      0.00     0.00
"LOAD.675C" ......   1      156.45            0     0.00           0     0.00      0.00     0.00
"LOAD.611" .......   1      78.285            0     0.00           0     0.00      0.00     0.00
"LOAD.652" .......   1       62.22            0     0.00           0     0.00      0.00     0.00
"LOAD.670A" ......   1      8.2463            0     0.00           0     0.00      0.00     0.00
"LOAD.670B" ......   1      30.769            0     0.00           0     0.00      0.00     0.00
"LOAD.670C" ......   1      57.381            0     0.00           0     0.00      0.00     0.00
